*HEADING


**
**
*NODE
       1,       -94.20163726309161,       3.0303030000000017,                 5.652396
       2,       -94.20163726309161,                 3.030303,                       0.
       3,       -94.20163726309161,        3.030303000000001,         2.82619799999995
       4,       -94.20163726309161,                 6.060606,                       0.
       5,       -94.20163726309161,     1.55431223447521E-15,        2.826197999999984
       6,       -94.20163726309161,   3.1086244689504383E-15,                 5.652396
       7,       -94.20163726309161,                 6.060606,       2.8261979999999833
       8,       -94.20163726309161,                 6.060606,                 5.652396
       9,       -94.20163726309161,                       0.,                       0.
**
** MEMBRANE and STRUCTURAL ELEMENTS
**
*ELEMENT, TYPE=S4, ELSET=P1;ELSET_MAT
       1,        7,        8,        1,        3
       2,        3,        1,        6,        5
       3,        2,        3,        5,        9
       6,        3,        2,        4,        7
**
** 
**
**
** 
**
**
** SECTION DATA
**
*SHELL SECTION, ELSET=P1;ELSET_MAT, MATERIAL=M1;MAT, DENSITY=0.
                     0.8,
**
** MATERIALS
**
**
**M1;MAT
**
*MATERIAL, NAME=M1;MAT
*DENSITY
                      1.,
*ELASTIC, TYPE=ISOTROPIC
                  40000.,                      0.3
**
** 
**
** 
** SETS
** 
*NSET, NSET=LOAD_SET
       4,
*NSET, NSET=DOF_3
       1,        6,        8
**
** STEPS
**
**
** STEP 1
**
*STEP, NAME=STEP-1
*STATIC
**
** CLOAD
**
*CLOAD
LOAD_SET,        3,                  -10000.
**
** BOUNDARY
**
*BOUNDARY, FIXED
DOF_3,        1,        6
*NODE PRINT
U,
*END STEP
